*Heading
 S3 / BFGS
** Job name: task7_s3_bfgs_refined Model name: S3_BFGS
** Generated by: Abaqus/CAE Learning Edition 2025
*Preprint, echo=NO, model=NO, history=NO, contact=NO
**
** PARTS
**
*Part, name=TowerShell
*Node
      1,   31.7480831,    3.6500001,           0.
      2,   39.2999992,           0.,           0.
      3,   26.8657875,   7.30000019,           0.
      4,    23.571703,   10.9499998,           0.
      5,   21.4306812,   14.6000004,           0.
      6,   20.2326393,        18.25,           0.
      7,   19.8781643,   21.8999996,           0.
      8,   20.3399467,   25.5499992,           0.
      9,   21.6537399,   29.2000008,           0.
     10,   23.9303379,   32.8499985,           0.
     11,   27.3999996,         36.5,           0.
     12,   31.3572102,    3.6500001,   4.96649456
     13,   30.1942215,    3.6500001,    9.8106966
     14,   28.2877483,    3.6500001,   14.4133282
     15,   25.6847382,    3.6500001,   18.6610546
     16,   22.4492836,    3.6500001,   22.4492836
     17,   18.6610546,    3.6500001,   25.6847382
     18,   14.4133282,    3.6500001,   28.2877483
     19,    9.8106966,    3.6500001,   30.1942215
     20,   4.96649456,    3.6500001,   31.3572102
** ... 820 like lines cut
*Element, type=S4R
 1,   1,  50, 451,  51
 2,  50,  49, 452, 451
 3,  49,  48, 453, 452
 4,  48,  47, 454, 453
 5,  47,  46, 455, 454
 6,  46,  45, 456, 455
 7,  45,  44, 457, 456
 8,  44,  43, 458, 457
 9,  43,  42, 459, 458
10,  42,  41, 460, 459
11,  41,  40, 461, 460
12,  40,  39, 462, 461
13,  39,  38, 463, 462
14,  38,  37, 464, 463
15,  37,  36, 465, 464
16,  36,  35, 466, 465
17,  35,  34, 467, 466
18,  34,  33, 468, 467
19,  33,  32, 469, 468
20,  32,  31, 470, 469
** ... 780 like lines cut
*Nset, nset=FALL, generate
   1,  840,    1
*Elset, elset=FALL, generate
   1,  800,    1
*Nset, nset=EBASE
  2, 52, 53, 54, 55, 56, 57, 58, 59, 60, 61, 62, 63, 64, 65, 66
 67, 68, 69, 70, 71, 72, 73, 74, 75, 76, 77, 78, 79, 80, 81, 82
 83, 84, 85, 86, 87, 88, 89, 90
*Elset, elset=EBASE, generate
 41,  80,   1
*Nset, nset=ETOP
  11, 411, 412, 413, 414, 415, 416, 417, 418, 419, 420, 421, 422, 423, 424, 425
 426, 427, 428, 429, 430, 431, 432, 433, 434, 435, 436, 437, 438, 439, 440, 441
 442, 443, 444, 445, 446, 447, 448, 449
*Elset, elset=ETOP, generate
 721,  760,    1
** Section: TowerSection
*Shell Section, elset=FALL, material=EquivalentReinforcedConcrete_C30_37
0.2, 5
*End Part
**  
**
** ASSEMBLY
**
*Assembly, name=Assembly
**  
*Instance, name=Tower-1, part=TowerShell
*End Instance
**  
*Elset, elset=__PickedSurf3_SPOS, internal, instance=Tower-1, generate
   1,  800,    1
*Surface, type=ELEMENT, name=_PickedSurf3, internal
__PickedSurf3_SPOS, SPOS
*Elset, elset=__PickedSurf4_SPOS, internal, instance=Tower-1, generate
   1,  800,    1
*Surface, type=ELEMENT, name=_PickedSurf4, internal
__PickedSurf4_SPOS, SPOS
*End Assembly
** 
** MATERIALS
** 
*Material, name=EquivalentReinforcedConcrete_C30_37
*Density
2500.,
*Elastic
 3.3e+10, 0.2
** 
** BOUNDARY CONDITIONS
** 
** Name: FixBase Type: Displacement/Rotation
*Boundary
Tower-1.EBASE, 1, 1
Tower-1.EBASE, 2, 2
Tower-1.EBASE, 3, 3
Tower-1.EBASE, 4, 4
Tower-1.EBASE, 5, 5
Tower-1.EBASE, 6, 6
** ----------------------------------------------------------------
** 
** STEP: STATIC_WIND
** 
*Step, name=STATIC_WIND, nlgeom=NO
*Static
1., 1., 1e-05, 1.
** 
** LOADS
** 
** Name: SelfWeight   Type: Gravity
*Dload, op=NEW
, GRAV, 9.81, 0., -1., 0.
** Name: Wind   Type: Pressure Using Field: WindCp
*Dload, op=NEW
Tower-1.1, P, 448.613
Tower-1.2, P, 437.566
Tower-1.3, P, 415.746
Tower-1.4, P, 383.688
Tower-1.5, P, 342.183
Tower-1.6, P, 292.252
Tower-1.7, P, 235.124
Tower-1.8, P, 172.208
Tower-1.9, P, 105.05
Tower-1.10, P, 35.3066
Tower-1.11, P, -35.3066
Tower-1.12, P, -105.05
Tower-1.13, P, -172.208
Tower-1.14, P, -235.124
Tower-1.15, P, -281.25
Tower-1.16, P, -281.25
Tower-1.17, P, -281.25
Tower-1.18, P, -281.25
Tower-1.19, P, -281.25
Tower-1.20, P, -281.25
** ... 780 like lines cut
** 
** OUTPUT REQUESTS
** 
*Restart, write, frequency=0
** 
** FIELD OUTPUT: F-Output-1
** 
*Output, field, variable=PRESELECT
** 
** HISTORY OUTPUT: H-Output-1
** 
*Output, history, variable=PRESELECT
*End Step
** ----------------------------------------------------------------
** 
** STEP: BUCKLING
** 
*Step, name=BUCKLING, nlgeom=NO, perturbation
*Buckle
5, , 20, 120
** 
** BOUNDARY CONDITIONS
** 
** Name: FixBase Type: Displacement/Rotation
*Boundary, op=NEW, load case=1
Tower-1.EBASE, 1, 1
Tower-1.EBASE, 2, 2
Tower-1.EBASE, 3, 3
Tower-1.EBASE, 4, 4
Tower-1.EBASE, 5, 5
Tower-1.EBASE, 6, 6
*Boundary, op=NEW, load case=2
Tower-1.EBASE, 1, 1
Tower-1.EBASE, 2, 2
Tower-1.EBASE, 3, 3
Tower-1.EBASE, 4, 4
Tower-1.EBASE, 5, 5
Tower-1.EBASE, 6, 6
** 
** LOADS
** 
** Name: SelfWeightBuckling   Type: Gravity
*Dload, op=NEW
, GRAV, 9.81, 0., -1., 0.
** Name: WindBuckling   Type: Pressure Using Field: WindCp
*Dload, op=NEW
Tower-1.1, P, 448.613
Tower-1.2, P, 437.566
Tower-1.3, P, 415.746
Tower-1.4, P, 383.688
Tower-1.5, P, 342.183
Tower-1.6, P, 292.252
Tower-1.7, P, 235.124
Tower-1.8, P, 172.208
Tower-1.9, P, 105.05
Tower-1.10, P, 35.3066
Tower-1.11, P, -35.3066
Tower-1.12, P, -105.05
Tower-1.13, P, -172.208
Tower-1.14, P, -235.124
Tower-1.15, P, -281.25
Tower-1.16, P, -281.25
Tower-1.17, P, -281.25
Tower-1.18, P, -281.25
Tower-1.19, P, -281.25
Tower-1.20, P, -281.25
** ... 780 like lines cut
** 
** OUTPUT REQUESTS
** 
*Restart, write, frequency=0
** 
** FIELD OUTPUT: F-Output-2
** 
*Output, field, variable=PRESELECT
*End Step
