*HEADING
** Task 7 generated input for S4 / BFGS (engineering_feasible)
*PREPRINT, ECHO=NO, MODEL=NO, HISTORY=NO, CONTACT=NO
*NODE
1, 39.300000, 0.000000, 0.000000
2, 38.816152, 0.000000, 6.147874
3, 37.376521, 0.000000, 12.144368
4, 35.016556, 0.000000, 17.841827
5, 31.794368, 0.000000, 23.099960
6, 27.789297, 0.000000, 27.789297
7, 23.099960, 0.000000, 31.794368
8, 17.841827, 0.000000, 35.016556
9, 12.144368, 0.000000, 37.376521
10, 6.147874, 0.000000, 38.816152
11, 0.000000, 0.000000, 39.300000
12, -6.147874, 0.000000, 38.816152
13, -12.144368, 0.000000, 37.376521
14, -17.841827, 0.000000, 35.016556
15, -23.099960, 0.000000, 31.794368
16, -27.789297, 0.000000, 27.789297
17, -31.794368, 0.000000, 23.099960
18, -35.016556, 0.000000, 17.841827
19, -37.376521, 0.000000, 12.144368
20, -38.816152, 0.000000, 6.147874
** ... 980 like lines cut
*ELEMENT, TYPE=S4R, ELSET=EALL
1, 1, 2, 42, 41
2, 2, 3, 43, 42
3, 3, 4, 44, 43
4, 4, 5, 45, 44
5, 5, 6, 46, 45
6, 6, 7, 47, 46
7, 7, 8, 48, 47
8, 8, 9, 49, 48
9, 9, 10, 50, 49
10, 10, 11, 51, 50
11, 11, 12, 52, 51
12, 12, 13, 53, 52
13, 13, 14, 54, 53
14, 14, 15, 55, 54
15, 15, 16, 56, 55
16, 16, 17, 57, 56
17, 17, 18, 58, 57
18, 18, 19, 59, 58
19, 19, 20, 60, 59
20, 20, 21, 61, 60
** ... 940 like lines cut
*NSET, NSET=NALL
1, 2, 3, 4, 5, 6, 7, 8, 9, 10, 11, 12, 13, 14, 15, 16
17, 18, 19, 20, 21, 22, 23, 24, 25, 26, 27, 28, 29, 30, 31, 32
33, 34, 35, 36, 37, 38, 39, 40, 41, 42, 43, 44, 45, 46, 47, 48
49, 50, 51, 52, 53, 54, 55, 56, 57, 58, 59, 60, 61, 62, 63, 64
65, 66, 67, 68, 69, 70, 71, 72, 73, 74, 75, 76, 77, 78, 79, 80
81, 82, 83, 84, 85, 86, 87, 88, 89, 90, 91, 92, 93, 94, 95, 96
97, 98, 99, 100, 101, 102, 103, 104, 105, 106, 107, 108, 109, 110, 111, 112
113, 114, 115, 116, 117, 118, 119, 120, 121, 122, 123, 124, 125, 126, 127, 128
129, 130, 131, 132, 133, 134, 135, 136, 137, 138, 139, 140, 141, 142, 143, 144
145, 146, 147, 148, 149, 150, 151, 152, 153, 154, 155, 156, 157, 158, 159, 160
161, 162, 163, 164, 165, 166, 167, 168, 169, 170, 171, 172, 173, 174, 175, 176
177, 178, 179, 180, 181, 182, 183, 184, 185, 186, 187, 188, 189, 190, 191, 192
193, 194, 195, 196, 197, 198, 199, 200, 201, 202, 203, 204, 205, 206, 207, 208
209, 210, 211, 212, 213, 214, 215, 216, 217, 218, 219, 220, 221, 222, 223, 224
225, 226, 227, 228, 229, 230, 231, 232, 233, 234, 235, 236, 237, 238, 239, 240
241, 242, 243, 244, 245, 246, 247, 248, 249, 250, 251, 252, 253, 254, 255, 256
257, 258, 259, 260, 261, 262, 263, 264, 265, 266, 267, 268, 269, 270, 271, 272
273, 274, 275, 276, 277, 278, 279, 280, 281, 282, 283, 284, 285, 286, 287, 288
289, 290, 291, 292, 293, 294, 295, 296, 297, 298, 299, 300, 301, 302, 303, 304
305, 306, 307, 308, 309, 310, 311, 312, 313, 314, 315, 316, 317, 318, 319, 320
** ... 43 like lines cut
*NSET, NSET=NBASE
1, 2, 3, 4, 5, 6, 7, 8, 9, 10, 11, 12, 13, 14, 15, 16
17, 18, 19, 20, 21, 22, 23, 24, 25, 26, 27, 28, 29, 30, 31, 32
33, 34, 35, 36, 37, 38, 39, 40
*NSET, NSET=NTOP
961, 962, 963, 964, 965, 966, 967, 968, 969, 970, 971, 972, 973, 974, 975, 976
977, 978, 979, 980, 981, 982, 983, 984, 985, 986, 987, 988, 989, 990, 991, 992
993, 994, 995, 996, 997, 998, 999, 1000
*ELSET, ELSET=WIND_SEC_01
1, 41, 81, 121, 161, 201, 241, 281, 321, 361, 401, 441, 481, 521, 561, 601
641, 681, 721, 761, 801, 841, 881, 921
*ELSET, ELSET=WIND_SEC_02
2, 42, 82, 122, 162, 202, 242, 282, 322, 362, 402, 442, 482, 522, 562, 602
642, 682, 722, 762, 802, 842, 882, 922
*ELSET, ELSET=WIND_SEC_03
3, 43, 83, 123, 163, 203, 243, 283, 323, 363, 403, 443, 483, 523, 563, 603
643, 683, 723, 763, 803, 843, 883, 923
*ELSET, ELSET=WIND_SEC_04
4, 44, 84, 124, 164, 204, 244, 284, 324, 364, 404, 444, 484, 524, 564, 604
644, 684, 724, 764, 804, 844, 884, 924
*ELSET, ELSET=WIND_SEC_05
5, 45, 85, 125, 165, 205, 245, 285, 325, 365, 405, 445, 485, 525, 565, 605
645, 685, 725, 765, 805, 845, 885, 925
*ELSET, ELSET=WIND_SEC_06
6, 46, 86, 126, 166, 206, 246, 286, 326, 366, 406, 446, 486, 526, 566, 606
646, 686, 726, 766, 806, 846, 886, 926
*ELSET, ELSET=WIND_SEC_07
7, 47, 87, 127, 167, 207, 247, 287, 327, 367, 407, 447, 487, 527, 567, 607
647, 687, 727, 767, 807, 847, 887, 927
*ELSET, ELSET=WIND_SEC_08
8, 48, 88, 128, 168, 208, 248, 288, 328, 368, 408, 448, 488, 528, 568, 608
648, 688, 728, 768, 808, 848, 888, 928
*ELSET, ELSET=WIND_SEC_09
9, 49, 89, 129, 169, 209, 249, 289, 329, 369, 409, 449, 489, 529, 569, 609
649, 689, 729, 769, 809, 849, 889, 929
*ELSET, ELSET=WIND_SEC_10
10, 50, 90, 130, 170, 210, 250, 290, 330, 370, 410, 450, 490, 530, 570, 610
650, 690, 730, 770, 810, 850, 890, 930
*ELSET, ELSET=WIND_SEC_11
11, 51, 91, 131, 171, 211, 251, 291, 331, 371, 411, 451, 491, 531, 571, 611
651, 691, 731, 771, 811, 851, 891, 931
*ELSET, ELSET=WIND_SEC_12
12, 52, 92, 132, 172, 212, 252, 292, 332, 372, 412, 452, 492, 532, 572, 612
652, 692, 732, 772, 812, 852, 892, 932
*ELSET, ELSET=WIND_SEC_13
13, 53, 93, 133, 173, 213, 253, 293, 333, 373, 413, 453, 493, 533, 573, 613
653, 693, 733, 773, 813, 853, 893, 933
*ELSET, ELSET=WIND_SEC_14
14, 54, 94, 134, 174, 214, 254, 294, 334, 374, 414, 454, 494, 534, 574, 614
654, 694, 734, 774, 814, 854, 894, 934
*ELSET, ELSET=WIND_SEC_15
15, 55, 95, 135, 175, 215, 255, 295, 335, 375, 415, 455, 495, 535, 575, 615
655, 695, 735, 775, 815, 855, 895, 935
*ELSET, ELSET=WIND_SEC_16
16, 56, 96, 136, 176, 216, 256, 296, 336, 376, 416, 456, 496, 536, 576, 616
656, 696, 736, 776, 816, 856, 896, 936
*ELSET, ELSET=WIND_SEC_17
17, 57, 97, 137, 177, 217, 257, 297, 337, 377, 417, 457, 497, 537, 577, 617
657, 697, 737, 777, 817, 857, 897, 937
*ELSET, ELSET=WIND_SEC_18
18, 58, 98, 138, 178, 218, 258, 298, 338, 378, 418, 458, 498, 538, 578, 618
658, 698, 738, 778, 818, 858, 898, 938
*ELSET, ELSET=WIND_SEC_19
19, 59, 99, 139, 179, 219, 259, 299, 339, 379, 419, 459, 499, 539, 579, 619
659, 699, 739, 779, 819, 859, 899, 939
*ELSET, ELSET=WIND_SEC_20
** ... 62 like lines cut
*MATERIAL, NAME=EquivalentReinforcedConcrete_C30_37
*ELASTIC
33000000000.000000, 0.200000
*DENSITY
2500.000000
*SHELL SECTION, ELSET=EALL, MATERIAL=EquivalentReinforcedConcrete_C30_37
0.200000
*BOUNDARY
NBASE, 1, 6
*STEP, NAME=STATIC_WIND, NLGEOM=NO
*STATIC
0.1, 1.0, 1e-05, 1.0
*DLOAD
EALL, GRAV, 9.810000, 0.000000, -1.000000, 0.000000
*OUTPUT, FIELD, FREQUENCY=1
*NODE OUTPUT, NSET=NALL
U
*NODE OUTPUT, NSET=NBASE
RF
*ELEMENT OUTPUT, ELSET=EALL
S, E
*END STEP
