*HEADING
** Task 7 generated input for joint_reference
*PREPRINT, ECHO=NO, MODEL=NO, HISTORY=NO, CONTACT=NO
*NODE
1, 39.300000, 0.000000, 0.000000
2, 37.960885, 10.171588, 0.000000
3, 34.034798, 19.650000, 0.000000
4, 27.789297, 27.789297, 0.000000
5, 19.650000, 34.034798, 0.000000
6, 10.171588, 37.960885, 0.000000
7, 0.000000, 39.300000, 0.000000
8, -10.171588, 37.960885, 0.000000
9, -19.650000, 34.034798, 0.000000
10, -27.789297, 27.789297, 0.000000
11, -34.034798, 19.650000, 0.000000
12, -37.960885, 10.171588, 0.000000
13, -39.300000, 0.000000, 0.000000
14, -37.960885, -10.171588, 0.000000
15, -34.034798, -19.650000, 0.000000
16, -27.789297, -27.789297, 0.000000
17, -19.650000, -34.034798, 0.000000
18, -10.171588, -37.960885, 0.000000
19, -0.000000, -39.300000, 0.000000
20, 10.171588, -37.960885, 0.000000
** ... 484 like lines cut
*ELEMENT, TYPE=S4R, ELSET=EALL
1, 1, 2, 26, 25
2, 2, 3, 27, 26
3, 3, 4, 28, 27
4, 4, 5, 29, 28
5, 5, 6, 30, 29
6, 6, 7, 31, 30
7, 7, 8, 32, 31
8, 8, 9, 33, 32
9, 9, 10, 34, 33
10, 10, 11, 35, 34
11, 11, 12, 36, 35
12, 12, 13, 37, 36
13, 13, 14, 38, 37
14, 14, 15, 39, 38
15, 15, 16, 40, 39
16, 16, 17, 41, 40
17, 17, 18, 42, 41
18, 18, 19, 43, 42
19, 19, 20, 44, 43
20, 20, 21, 45, 44
** ... 460 like lines cut
*NSET, NSET=NALL
1, 2, 3, 4, 5, 6, 7, 8, 9, 10, 11, 12, 13, 14, 15, 16
17, 18, 19, 20, 21, 22, 23, 24, 25, 26, 27, 28, 29, 30, 31, 32
33, 34, 35, 36, 37, 38, 39, 40, 41, 42, 43, 44, 45, 46, 47, 48
49, 50, 51, 52, 53, 54, 55, 56, 57, 58, 59, 60, 61, 62, 63, 64
65, 66, 67, 68, 69, 70, 71, 72, 73, 74, 75, 76, 77, 78, 79, 80
81, 82, 83, 84, 85, 86, 87, 88, 89, 90, 91, 92, 93, 94, 95, 96
97, 98, 99, 100, 101, 102, 103, 104, 105, 106, 107, 108, 109, 110, 111, 112
113, 114, 115, 116, 117, 118, 119, 120, 121, 122, 123, 124, 125, 126, 127, 128
129, 130, 131, 132, 133, 134, 135, 136, 137, 138, 139, 140, 141, 142, 143, 144
145, 146, 147, 148, 149, 150, 151, 152, 153, 154, 155, 156, 157, 158, 159, 160
161, 162, 163, 164, 165, 166, 167, 168, 169, 170, 171, 172, 173, 174, 175, 176
177, 178, 179, 180, 181, 182, 183, 184, 185, 186, 187, 188, 189, 190, 191, 192
193, 194, 195, 196, 197, 198, 199, 200, 201, 202, 203, 204, 205, 206, 207, 208
209, 210, 211, 212, 213, 214, 215, 216, 217, 218, 219, 220, 221, 222, 223, 224
225, 226, 227, 228, 229, 230, 231, 232, 233, 234, 235, 236, 237, 238, 239, 240
241, 242, 243, 244, 245, 246, 247, 248, 249, 250, 251, 252, 253, 254, 255, 256
257, 258, 259, 260, 261, 262, 263, 264, 265, 266, 267, 268, 269, 270, 271, 272
273, 274, 275, 276, 277, 278, 279, 280, 281, 282, 283, 284, 285, 286, 287, 288
289, 290, 291, 292, 293, 294, 295, 296, 297, 298, 299, 300, 301, 302, 303, 304
305, 306, 307, 308, 309, 310, 311, 312, 313, 314, 315, 316, 317, 318, 319, 320
** ... 12 like lines cut
*NSET, NSET=NBASE
1, 2, 3, 4, 5, 6, 7, 8, 9, 10, 11, 12, 13, 14, 15, 16
17, 18, 19, 20, 21, 22, 23, 24
*NSET, NSET=NTOP
481, 482, 483, 484, 485, 486, 487, 488, 489, 490, 491, 492, 493, 494, 495, 496
497, 498, 499, 500, 501, 502, 503, 504
*ELSET, ELSET=WIND_SEC_01
1, 25, 49, 73, 97, 121, 145, 169, 193, 217, 241, 265, 289, 313, 337, 361
385, 409, 433, 457
*ELSET, ELSET=WIND_SEC_02
2, 26, 50, 74, 98, 122, 146, 170, 194, 218, 242, 266, 290, 314, 338, 362
386, 410, 434, 458
*ELSET, ELSET=WIND_SEC_03
3, 27, 51, 75, 99, 123, 147, 171, 195, 219, 243, 267, 291, 315, 339, 363
387, 411, 435, 459
*ELSET, ELSET=WIND_SEC_04
4, 28, 52, 76, 100, 124, 148, 172, 196, 220, 244, 268, 292, 316, 340, 364
388, 412, 436, 460
*ELSET, ELSET=WIND_SEC_05
5, 29, 53, 77, 101, 125, 149, 173, 197, 221, 245, 269, 293, 317, 341, 365
389, 413, 437, 461
*ELSET, ELSET=WIND_SEC_06
6, 30, 54, 78, 102, 126, 150, 174, 198, 222, 246, 270, 294, 318, 342, 366
390, 414, 438, 462
*ELSET, ELSET=WIND_SEC_07
7, 31, 55, 79, 103, 127, 151, 175, 199, 223, 247, 271, 295, 319, 343, 367
391, 415, 439, 463
*ELSET, ELSET=WIND_SEC_08
8, 32, 56, 80, 104, 128, 152, 176, 200, 224, 248, 272, 296, 320, 344, 368
392, 416, 440, 464
*ELSET, ELSET=WIND_SEC_09
9, 33, 57, 81, 105, 129, 153, 177, 201, 225, 249, 273, 297, 321, 345, 369
393, 417, 441, 465
*ELSET, ELSET=WIND_SEC_10
10, 34, 58, 82, 106, 130, 154, 178, 202, 226, 250, 274, 298, 322, 346, 370
394, 418, 442, 466
*ELSET, ELSET=WIND_SEC_11
11, 35, 59, 83, 107, 131, 155, 179, 203, 227, 251, 275, 299, 323, 347, 371
395, 419, 443, 467
*ELSET, ELSET=WIND_SEC_12
12, 36, 60, 84, 108, 132, 156, 180, 204, 228, 252, 276, 300, 324, 348, 372
396, 420, 444, 468
*ELSET, ELSET=WIND_SEC_13
13, 37, 61, 85, 109, 133, 157, 181, 205, 229, 253, 277, 301, 325, 349, 373
397, 421, 445, 469
*ELSET, ELSET=WIND_SEC_14
14, 38, 62, 86, 110, 134, 158, 182, 206, 230, 254, 278, 302, 326, 350, 374
398, 422, 446, 470
*ELSET, ELSET=WIND_SEC_15
15, 39, 63, 87, 111, 135, 159, 183, 207, 231, 255, 279, 303, 327, 351, 375
399, 423, 447, 471
*ELSET, ELSET=WIND_SEC_16
16, 40, 64, 88, 112, 136, 160, 184, 208, 232, 256, 280, 304, 328, 352, 376
400, 424, 448, 472
*ELSET, ELSET=WIND_SEC_17
17, 41, 65, 89, 113, 137, 161, 185, 209, 233, 257, 281, 305, 329, 353, 377
401, 425, 449, 473
*ELSET, ELSET=WIND_SEC_18
18, 42, 66, 90, 114, 138, 162, 186, 210, 234, 258, 282, 306, 330, 354, 378
402, 426, 450, 474
*ELSET, ELSET=WIND_SEC_19
19, 43, 67, 91, 115, 139, 163, 187, 211, 235, 259, 283, 307, 331, 355, 379
403, 427, 451, 475
*ELSET, ELSET=WIND_SEC_20
** ... 14 like lines cut
*MATERIAL, NAME=EquivalentReinforcedConcrete_C30_37
*ELASTIC
33000000000.000000, 0.200000
*DENSITY
2500.000000
*SHELL SECTION, ELSET=EALL, MATERIAL=EquivalentReinforcedConcrete_C30_37
0.200000
*BOUNDARY
NBASE, 1, 6
*STEP, NAME=STATIC_WIND, NLGEOM=NO
*STATIC
0.1, 1.0, 1e-05, 1.0
*DLOAD
EALL, GRAV, 9.810000, 0.000000, 0.000000, -1.000000
WIND_SEC_01, P, -446.150188
WIND_SEC_02, P, -415.745790
WIND_SEC_03, P, -357.009003
WIND_SEC_04, P, -273.942643
WIND_SEC_05, P, -172.207545
WIND_SEC_06, P, -58.736786
WIND_SEC_07, P, 58.736786
WIND_SEC_08, P, 172.207545
WIND_SEC_09, P, 273.942643
WIND_SEC_10, P, 281.250000
WIND_SEC_11, P, 281.250000
WIND_SEC_12, P, 281.250000
WIND_SEC_13, P, 281.250000
WIND_SEC_14, P, 281.250000
WIND_SEC_15, P, 281.250000
WIND_SEC_16, P, 273.942643
WIND_SEC_17, P, 172.207545
WIND_SEC_18, P, 58.736786
WIND_SEC_19, P, -58.736786
WIND_SEC_20, P, -172.207545
** ... 4 like lines cut
*OUTPUT, FIELD, FREQUENCY=1
*NODE OUTPUT, NSET=NALL
U
*NODE OUTPUT, NSET=NBASE
RF
*ELEMENT OUTPUT, ELSET=EALL
S, E
*END STEP
*STEP, NAME=BUCKLING, PERTURBATION
*BUCKLE, EIGENSOLVER=LANCZOS
5,
*DLOAD
EALL, GRAV, 9.810000, 0.000000, 0.000000, -1.000000
WIND_SEC_01, P, -446.150188
WIND_SEC_02, P, -415.745790
WIND_SEC_03, P, -357.009003
WIND_SEC_04, P, -273.942643
WIND_SEC_05, P, -172.207545
WIND_SEC_06, P, -58.736786
WIND_SEC_07, P, 58.736786
WIND_SEC_08, P, 172.207545
WIND_SEC_09, P, 273.942643
WIND_SEC_10, P, 281.250000
WIND_SEC_11, P, 281.250000
WIND_SEC_12, P, 281.250000
WIND_SEC_13, P, 281.250000
WIND_SEC_14, P, 281.250000
WIND_SEC_15, P, 281.250000
WIND_SEC_16, P, 273.942643
WIND_SEC_17, P, 172.207545
WIND_SEC_18, P, 58.736786
WIND_SEC_19, P, -58.736786
WIND_SEC_20, P, -172.207545
** ... 4 like lines cut
*OUTPUT, FIELD, FREQUENCY=1
*NODE OUTPUT, NSET=NALL
U
*END STEP
