*HEADING
** Task 7 generated input for S7 / PSO (mathematical_fallback)
*PREPRINT, ECHO=NO, MODEL=NO, HISTORY=NO, CONTACT=NO
*NODE
1, 39.300000, 0.000000, 0.000000
2, 36.308466, 0.000000, 15.039459
3, 27.789297, 0.000000, 27.789297
4, 15.039459, 0.000000, 36.308466
5, 0.000000, 0.000000, 39.300000
6, -15.039459, 0.000000, 36.308466
7, -27.789297, 0.000000, 27.789297
8, -36.308466, 0.000000, 15.039459
9, -39.300000, 0.000000, 0.000000
10, -36.308466, 0.000000, -15.039459
11, -27.789297, 0.000000, -27.789297
12, -15.039459, 0.000000, -36.308466
13, -0.000000, 0.000000, -39.300000
14, 15.039459, 0.000000, -36.308466
15, 27.789297, 0.000000, -27.789297
16, 36.308466, 0.000000, -15.039459
17, 35.031917, 3.191711, 0.000000
18, 32.365271, 3.191711, 13.406134
19, 24.771306, 3.191711, 24.771306
20, 13.406134, 3.191711, 32.365271
** ... 156 like lines cut
*ELEMENT, TYPE=S4R, ELSET=EALL
1, 1, 2, 18, 17
2, 2, 3, 19, 18
3, 3, 4, 20, 19
4, 4, 5, 21, 20
5, 5, 6, 22, 21
6, 6, 7, 23, 22
7, 7, 8, 24, 23
8, 8, 9, 25, 24
9, 9, 10, 26, 25
10, 10, 11, 27, 26
11, 11, 12, 28, 27
12, 12, 13, 29, 28
13, 13, 14, 30, 29
14, 14, 15, 31, 30
15, 15, 16, 32, 31
16, 16, 1, 17, 32
17, 17, 18, 34, 33
18, 18, 19, 35, 34
19, 19, 20, 36, 35
20, 20, 21, 37, 36
** ... 140 like lines cut
*NSET, NSET=NALL
1, 2, 3, 4, 5, 6, 7, 8, 9, 10, 11, 12, 13, 14, 15, 16
17, 18, 19, 20, 21, 22, 23, 24, 25, 26, 27, 28, 29, 30, 31, 32
33, 34, 35, 36, 37, 38, 39, 40, 41, 42, 43, 44, 45, 46, 47, 48
49, 50, 51, 52, 53, 54, 55, 56, 57, 58, 59, 60, 61, 62, 63, 64
65, 66, 67, 68, 69, 70, 71, 72, 73, 74, 75, 76, 77, 78, 79, 80
81, 82, 83, 84, 85, 86, 87, 88, 89, 90, 91, 92, 93, 94, 95, 96
97, 98, 99, 100, 101, 102, 103, 104, 105, 106, 107, 108, 109, 110, 111, 112
113, 114, 115, 116, 117, 118, 119, 120, 121, 122, 123, 124, 125, 126, 127, 128
129, 130, 131, 132, 133, 134, 135, 136, 137, 138, 139, 140, 141, 142, 143, 144
145, 146, 147, 148, 149, 150, 151, 152, 153, 154, 155, 156, 157, 158, 159, 160
161, 162, 163, 164, 165, 166, 167, 168, 169, 170, 171, 172, 173, 174, 175, 176
*NSET, NSET=NBASE
1, 2, 3, 4, 5, 6, 7, 8, 9, 10, 11, 12, 13, 14, 15, 16
*NSET, NSET=NTOP
161, 162, 163, 164, 165, 166, 167, 168, 169, 170, 171, 172, 173, 174, 175, 176
*ELSET, ELSET=WIND_SEC_01
1, 17, 33, 49, 65, 81, 97, 113, 129, 145
*ELSET, ELSET=WIND_SEC_02
2, 18, 34, 50, 66, 82, 98, 114, 130, 146
*ELSET, ELSET=WIND_SEC_03
3, 19, 35, 51, 67, 83, 99, 115, 131, 147
*ELSET, ELSET=WIND_SEC_04
4, 20, 36, 52, 68, 84, 100, 116, 132, 148
*ELSET, ELSET=WIND_SEC_05
5, 21, 37, 53, 69, 85, 101, 117, 133, 149
*ELSET, ELSET=WIND_SEC_06
6, 22, 38, 54, 70, 86, 102, 118, 134, 150
*ELSET, ELSET=WIND_SEC_07
7, 23, 39, 55, 71, 87, 103, 119, 135, 151
*ELSET, ELSET=WIND_SEC_08
8, 24, 40, 56, 72, 88, 104, 120, 136, 152
*ELSET, ELSET=WIND_SEC_09
9, 25, 41, 57, 73, 89, 105, 121, 137, 153
*ELSET, ELSET=WIND_SEC_10
10, 26, 42, 58, 74, 90, 106, 122, 138, 154
*ELSET, ELSET=WIND_SEC_11
11, 27, 43, 59, 75, 91, 107, 123, 139, 155
*ELSET, ELSET=WIND_SEC_12
12, 28, 44, 60, 76, 92, 108, 124, 140, 156
*ELSET, ELSET=WIND_SEC_13
13, 29, 45, 61, 77, 93, 109, 125, 141, 157
*ELSET, ELSET=WIND_SEC_14
14, 30, 46, 62, 78, 94, 110, 126, 142, 158
*ELSET, ELSET=WIND_SEC_15
15, 31, 47, 63, 79, 95, 111, 127, 143, 159
*ELSET, ELSET=WIND_SEC_16
16, 32, 48, 64, 80, 96, 112, 128, 144, 160
*MATERIAL, NAME=EquivalentReinforcedConcrete_C30_37
*ELASTIC
33000000000.000000, 0.200000
*DENSITY
2500.000000
*SHELL SECTION, ELSET=EALL, MATERIAL=EquivalentReinforcedConcrete_C30_37
0.200000
*BOUNDARY
NBASE, 1, 6
*STEP, NAME=STATIC_WIND, NLGEOM=NO
*STATIC
0.1, 1.0, 1e-05, 1.0
*DLOAD
EALL, GRAV, 9.810000, 0.000000, -1.000000, 0.000000
WIND_SEC_01, P, -441.353376
WIND_SEC_02, P, -374.161326
WIND_SEC_03, P, -250.006605
WIND_SEC_04, P, -87.790645
WIND_SEC_05, P, 87.790645
WIND_SEC_06, P, 250.006605
WIND_SEC_07, P, 281.250000
WIND_SEC_08, P, 281.250000
WIND_SEC_09, P, 281.250000
WIND_SEC_10, P, 281.250000
WIND_SEC_11, P, 250.006605
WIND_SEC_12, P, 87.790645
WIND_SEC_13, P, -87.790645
WIND_SEC_14, P, -250.006605
WIND_SEC_15, P, -374.161326
WIND_SEC_16, P, -441.353376
*OUTPUT, FIELD, FREQUENCY=1
*NODE OUTPUT, NSET=NALL
U
*NODE OUTPUT, NSET=NBASE
RF
*ELEMENT OUTPUT, ELSET=EALL
S, E
*END STEP
*STEP, NAME=BUCKLING, PERTURBATION
*BUCKLE, EIGENSOLVER=LANCZOS
5,
*DLOAD
EALL, GRAV, 9.810000, 0.000000, -1.000000, 0.000000
WIND_SEC_01, P, -441.353376
WIND_SEC_02, P, -374.161326
WIND_SEC_03, P, -250.006605
WIND_SEC_04, P, -87.790645
WIND_SEC_05, P, 87.790645
WIND_SEC_06, P, 250.006605
WIND_SEC_07, P, 281.250000
WIND_SEC_08, P, 281.250000
WIND_SEC_09, P, 281.250000
WIND_SEC_10, P, 281.250000
WIND_SEC_11, P, 250.006605
WIND_SEC_12, P, 87.790645
WIND_SEC_13, P, -87.790645
WIND_SEC_14, P, -250.006605
WIND_SEC_15, P, -374.161326
WIND_SEC_16, P, -441.353376
*OUTPUT, FIELD, FREQUENCY=1
*NODE OUTPUT, NSET=NALL
U
*END STEP
